tests/fuzzer/corpus_json/24_columnar_21_random_037.json
{
  "version": "1.0",
  "type": "input",
  "is_batch": false,
  "attributes": {
    "node": [
      "id",
      "u_rated"
    ],
    "source": [
      "id",
      "node",
      "status",
      "u_ref",
      "u_ref_angle",
      "sk",
      "rx_ratio",
      "z01_ratio"
    ],
    "line": [
      "id",
      "from_node",
      "to_node",
      "from_status",
      "to_status",
      "r1",
      "x1",
      "c1",
      "tan1",
      "r0",
      "x0",
      "c0",
      "tan0",
      "i_n"
    ],
    "sym_load": [
      "id",
      "node",
      "status",
      "type",
      "p_specified",
      "q_specified"
    ],
    "shunt": [
      "id",
      "node",
      "status",
      "g1",
      "b1",
      "g0",
      "b0"
    ]
  },
  "data": {
    "node": [
      [
        0,
        380000.0
      ],
      [
        1,
        380000.0
      ],
      [
        2,
        380000.0
      ],
      [
        3,
        380000.0
      ],
      [
        4,
        380000.0
      ],
      [
        5,
        380000.0
      ],
      [
        6,
        380000.0
      ],
      [
        7,
        380000.0
      ],
      [
        8,
        380000.0
      ],
      [
        9,
        380000.0
      ],
      [
        10,
        380000.0
      ],
      [
        11,
        380000.0
      ]
    ],
    "source": [
      [
        12,
        0,
        1,
        1.0235632697722805,
        0.0,
        91693447.81875592,
        0.4209599522754781,
        1.0
      ]
    ],
    "line": [
      [
        13,
        0,
        1,
        1,
        1,
        2.575088628956747,
        3.1551898264783826,
        3.692298340629185e-07,
        0.0,
        0.3,
        0.3,
        1e-09,
        0.0,
        532.7384357990325
      ],
      [
        14,
        1,
        2,
        1,
        1,
        0.5392834165136595,
        3.4147496691664827,
        6.006683617497798e-07,
        0.0,
        0.3,
        0.3,
        1e-09,
        0.0,
        289.10527762784096
      ],
      [
        15,
        2,
        3,
        1,
        1,
        1.8928642188409954,
        3.680657685668357,
        4.4387744474707366e-07,
        0.0,
        0.3,
        0.3,
        1e-09,
        0.0,
        960.0199029011853
      ],
      [
        16,
        3,
        4,
        1,
        1,
        4.856279824037411,
        4.191813023742714,
        9.102750132312587e-08,
        0.0,
        0.3,
        0.3,
        1e-09,
        0.0,
        84.4011058526655
      ],
      [
        17,
        4,
        5,
        1,
        1,
        1.4429299134650337,
        1.8055353182640232,
        7.049528914120153e-07,
        0.0,
        0.3,
        0.3,
        1e-09,
        0.0,
        828.6175999187909
      ],
      [
        18,
        5,
        6,
        1,
        1,
        2.813121727338455,
        3.195955332561673,
        5.730797646226705e-07,
        0.0,
        0.3,
        0.3,
        1e-09,
        0.0,
        43.71602907048005
      ],
      [
        19,
        6,
        7,
        1,
        1,
        2.6333168752267717,
        1.0662190804331306,
        4.169628401325784e-07,
        0.0,
        0.3,
        0.3,
        1e-09,
        0.0,
        18.69620045649031
      ],
      [
        20,
        7,
        8,
        1,
        1,
        3.2789073701995477,
        4.551115757260385,
        6.861090441910423e-08,
        0.0,
        0.3,
        0.3,
        1e-09,
        0.0,
        584.2660747663031
      ],
      [
        21,
        8,
        9,
        1,
        1,
        0.11740529253717658,
        1.7593650343828422,
        1.5928580478498277e-07,
        0.0,
        0.3,
        0.3,
        1e-09,
        0.0,
        861.9761300197528
      ],
      [
        22,
        9,
        10,
        1,
        1,
        3.640133888032472,
        4.482675863138332,
        2.179641107905381e-07,
        0.0,
        0.3,
        0.3,
        1e-09,
        0.0,
        721.7105032388031
      ],
      [
        23,
        10,
        11,
        1,
        1,
        3.4974851171391936,
        2.5534149501258785,
        9.161938153335088e-07,
        0.0,
        0.3,
        0.3,
        1e-09,
        0.0,
        628.676977169877
      ]
    ],
    "sym_load": [
      [
        24,
        1,
        1,
        2,
        -59280.40820175884,
        -7137.1005158077905
      ],
      [
        25,
        2,
        1,
        2,
        -90342.73410029012,
        -1018.6682485088186
      ],
      [
        26,
        3,
        1,
        0,
        -46649.487840279915,
        -5217.197673291461
      ],
      [
        27,
        4,
        1,
        0,
        -31774.036063751046,
        -9410.9436723777
      ],
      [
        28,
        6,
        1,
        0,
        25622.390964253893,
        3154.862410591373
      ],
      [
        29,
        8,
        1,
        0,
        15306.447714284426,
        872.5416478694206
      ],
      [
        30,
        9,
        1,
        0,
        -77609.01496626981,
        -6682.479913684412
      ],
      [
        31,
        10,
        1,
        2,
        83182.13922569974,
        -9830.31058947062
      ],
      [
        32,
        11,
        1,
        2,
        67298.18292557332,
        -5515.539086762802
      ]
    ],
    "shunt": [
      [
        33,
        0,
        1,
        4.463733532754383e-05,
        -8.650709510679062e-05,
        0.0001,
        0.0001
      ]
    ]
  }
}
